<?xml version="1.0" encoding="UTF-8"?>

<!-- generated on 2026-07-04T12:36:52.893040+04:00 by Eclipse SUMO duarouter 1.27.1
<duarouterConfiguration xmlns:xsi="http://www.w3.org/2001/XMLSchema-instance" xsi:noNamespaceSchemaLocation="http://sumo.dlr.de/xsd/duarouterConfiguration.xsd">

    <input>
        <net-file value="citywalk.net.xml"/>
        <route-files value="citywalk.trips2.xml"/>
    </input>

    <output>
        <output-file value="citywalk.rou2.xml"/>
        <alternatives-output value="NUL"/>
    </output>

    <processing>
        <routing-threads value="2"/>
    </processing>

    <time>
        <begin value="0"/>
        <end value="600.0"/>
    </time>

    <report>
        <no-warnings value="true"/>
        <ignore-errors value="true"/>
        <no-step-log value="true"/>
    </report>

</duarouterConfiguration>
-->

<routes xmlns:xsi="http://www.w3.org/2001/XMLSchema-instance" xsi:noNamespaceSchemaLocation="http://sumo.dlr.de/xsd/routes_file.xsd">
    <vehicle id="0" depart="0.00">
        <route edges="500795632#0 -500795632#2"/>
    </vehicle>
    <vehicle id="3" depart="18.00">
        <route edges="97120535#0 97120535#1 97120535#7 97120535#9 97120535#10 480737862#0 480737862#1 97120989#0 981598175#2 479140002 480292133#0 480292137 1100837044 480292138 1024885709"/>
    </vehicle>
    <vehicle id="4" depart="24.00">
        <route edges="479140008#2 479140006#0 479140006#1 480292140#0 1024885708 480292060 1100837041#0 1100837041#1 480292059#0 981598185#0 981598185#0-AddedOffRampEdge 981598185#2 981598173 981598176 981598168 97120536#0 97120536#1 480737861#0 87360111#0 480737853#0 480737854#0 500788447 -87360195#1 973229105#0 -500795632#2"/>
    </vehicle>
    <vehicle id="5" depart="30.00">
        <route edges="1136473494#0 981624942#2 981624942#9 501730314#2 1156760273#0 514502173 981598176 981598167 251720556 981598175#1 981598175#2 479140002 480292133#0"/>
    </vehicle>
    <vehicle id="9" depart="54.00">
        <route edges="88652977#1 613468077#0 613468077#2-AddedOnRampEdge 613468077#2 613468077#2-AddedOffRampEdge 1136473494#0 981624942#2 496946057#0 1368047075 1368047077#4 1368047077#5 1368047077#0 501775753#0 88653092#5 88653092#5-AddedOffRampEdge 237427507#0 -237427513#2"/>
    </vehicle>
    <vehicle id="10" depart="60.00">
        <route edges="88652977#0-AddedOffRampEdge 613486671#0 613468077#2-AddedOnRampEdge 613468077#2 613468077#2-AddedOffRampEdge 613468077#6 981622800#0 981622800#1-AddedOnRampEdge 981622800#1 981622800#1-AddedOffRampEdge 241601363#0 1100837041#1 480292059#0 480292059#1 10481964 981598178 981598184 480737842 95085361 88652961#0 501745979#0-AddedOnRampEdge 501745979#0"/>
    </vehicle>
    <vehicle id="11" depart="66.00">
        <route edges="251720560 1530629906-AddedOnRampEdge 1530629906 480737865#0 480737841 480737864 480737863#0 480737863#1 480737846#0 981598167 251720556 981598175#1 981598175#2 479140002 971400359#0 1100837039 1100837040"/>
    </vehicle>
    <vehicle id="13" depart="78.00">
        <route edges="100718943 1530629906-AddedOnRampEdge 1530629906 480737865#0 480737841 480737864 480737863#0 480737863#1 480737846#0 981598167 251720556 981598175#1 981598175#2 479140002 88653118#0 480292121 480292124#0 106413700#0"/>
    </vehicle>
    <vehicle id="14" depart="84.00">
        <route edges="88653137#0 480292139#0 480292138 1024885709 241601364#0 241601364#2-AddedOnRampEdge 241601364#2 981622800#0 981622800#1-AddedOnRampEdge 981622800#1 981622800#1-AddedOffRampEdge 241601363#0 1100837041#1 480292059#0 981598185#0 981598185#0-AddedOffRampEdge 981598185#2 981598173 981598176 981598168 97120536#0 97120536#1 480737861#0"/>
    </vehicle>
    <vehicle id="15" depart="90.00">
        <route edges="88652977#0-AddedOffRampEdge 613486671#0 613468077#2-AddedOnRampEdge 613468077#2"/>
    </vehicle>
    <vehicle id="19" depart="114.00">
        <route edges="95085360 480737865#0 480737841 480737864 480737863#0 97120990#0 97120536#1 480737861#0 87360111#0 480737853#0 480737854#0 480737854#1 480737854#2"/>
    </vehicle>
    <vehicle id="22" depart="132.00">
        <route edges="100718943 1530629906-AddedOnRampEdge 1530629906 480737865#0 480737841 480737864 237427514#0 237427514#0-AddedOffRampEdge 237427514#2 981598177 981598172 514502167#0 463462528#0-AddedOnRampEdge 463462528#0 1156760251#2"/>
    </vehicle>
    <vehicle id="23" depart="138.00">
        <route edges="1024885709 241601364#0 241601364#2-AddedOnRampEdge 241601364#2 981624942#0 981624942#2 496946057#0 1368047075 1368047077#4 1368232166 1368336167"/>
    </vehicle>
    <vehicle id="24" depart="144.00">
        <route edges="500795347 480737862#1 480737862#3 463467020#0 480292058 981598173 981598176 981598168 97120536#0 97120536#1 281165131"/>
    </vehicle>
    <vehicle id="28" depart="168.00">
        <route edges="1100837046 480292060 1100837041#0 1100837041#1 480292059#0 981598185#0 981598185#0-AddedOffRampEdge 1100837038 981598175#1 981598175#2 479140002 971400359#0 1100837039 1100837040 1100837047 241601364#0 241601364#2-AddedOnRampEdge 241601364#2 613486673#0 613486673#0-AddedOffRampEdge 613486673#5 613468077#0"/>
    </vehicle>
    <vehicle id="30" depart="180.00">
        <route edges="981622800#1-AddedOnRampEdge 981622800#1 981622800#1-AddedOffRampEdge 241601363#0 1100837041#1 480292059#0 246270492#0 463462528#0-AddedOnRampEdge 463462528#0 496774658#1"/>
    </vehicle>
    <vehicle id="31" depart="186.00">
        <route edges="480737862#1 97120989#0 981598175#2 479140002 971400359#0 1100837039 1100837040 1100837047 241601364#0 241601364#2-AddedOnRampEdge 241601364#2 613486673#0 613486673#0-AddedOffRampEdge 613486673#5 501730305#5 501730305#6"/>
    </vehicle>
    <vehicle id="32" depart="192.00">
        <route edges="88653137#0 480292139#0 480292138 1024885709 241601364#0 241601364#2-AddedOnRampEdge 241601364#2 981622800#0 981622800#1-AddedOnRampEdge 981622800#1 981622800#1-AddedOffRampEdge 241601363#0 1100837041#1 480292059#0 981598185#0 981598185#0-AddedOffRampEdge 981598185#2 981598173 981598176 981598168 97120536#0 97120536#1 480737861#0 87360111#0"/>
    </vehicle>
    <vehicle id="33" depart="198.00">
        <route edges="1156760275#0 501730314#2 1156760273#0 514502173 981598176 981598168 97120536#0 97120536#1 480737861#0 87360111#0 480737853#0 480737854#0 500788447 -87360195#1 973229105#0 500795632#4 1096522651#0 -87360265#2 87360265#0 1096522652#0 -500795632#5"/>
    </vehicle>
    <vehicle id="34" depart="204.00">
        <route edges="241601364#2-AddedOnRampEdge 241601364#2 981624942#0 981624942#2 496946057#0 1368047075 1368047077#4 1368232166 1368047078"/>
    </vehicle>
    <vehicle id="35" depart="210.00">
        <route edges="1136472582 237427514#0 237427514#0-AddedOffRampEdge 237427514#2 981598177 981598173"/>
    </vehicle>
    <vehicle id="38" depart="228.00">
        <route edges="97120989#0 981598175#2 479140002 971400359#0 1100837051 1100837041#0 1100837041#1 480292059#0"/>
    </vehicle>
    <vehicle id="39" depart="234.00">
        <route edges="1530629906-AddedOnRampEdge 1530629906 480737865#0 480737841 480737864 480737863#0 97120990#0 97120536#1 480737861#0 480737861#2 97120535#7 -87360160#6 -87360160#5 -87360160#3 87360214 1192352242#1"/>
    </vehicle>
    <vehicle id="40" depart="240.00">
        <route edges="480737863#0 480737863#1 480737846#0 981598167 251720556 981598175#1 981598175#2 479140002 971400359#0 1100837039 1100837040 1100837047 241601364#0 241601364#2-AddedOnRampEdge 241601364#2 981624942#0 981624942#2 496946057#0 1368047075 1368047077#4 1368232166 1368047078"/>
    </vehicle>
    <vehicle id="41" depart="246.00">
        <route edges="496780589 97120535#1 97120535#7 97120535#9 97120535#10"/>
    </vehicle>
    <vehicle id="43" depart="258.00">
        <route edges="981624942#9 501730314#2 1156760273#0 514502173 981598176 981598167 251720556 981598175#1 981598175#2 479140002 480292133#0 480292137"/>
    </vehicle>
    <vehicle id="44" depart="264.00">
        <route edges="100718943 1530629906-AddedOnRampEdge 1530629906 480737865#0 480737841 480737864 480737863#0 97120990#0 97120536#1 480737861#0 480737861#2 97120535#7 -87360160#6"/>
    </vehicle>
    <vehicle id="48" depart="288.00">
        <route edges="981624942#2 981624942#9 501730314#2 1156760272 463462527 480737842 480737843 251720557 480737840"/>
    </vehicle>
    <vehicle id="49" depart="294.00">
        <route edges="981598185#2 981598173 981598176 981598167 251720556 981598175#1 981598175#2 479140002 971400359#0 1100837039 1100837040 1100837047 241601364#0 241601364#2-AddedOnRampEdge 241601364#2 981624942#0 981624942#2 496946057#0 1368047075 1368047077#4 1368047077#5 1368047077#0 501775753#0 88653092#5"/>
    </vehicle>
    <vehicle id="50" depart="300.00">
        <route edges="-1368047078 1368336167 1368047077#0 1368047077#1 1368047077#2 1368047076 -496946057#3 981624942#9 501730314#2 1156760273#0 514502173 981598177 981598172 514502167#0"/>
    </vehicle>
    <vehicle id="51" depart="306.00">
        <route edges="501730305#0 501730305#1 613468077#0 613468077#2-AddedOnRampEdge 613468077#2 613468077#2-AddedOffRampEdge 613468077#6 981622800#0 981622800#1-AddedOnRampEdge 981622800#1 981622800#1-AddedOffRampEdge 241601363#0 1100837041#1 480292059#0 480292059#1 10481964 981598178 981598184 480737842 480737843 251720557 480737840"/>
    </vehicle>
    <vehicle id="54" depart="324.00">
        <route edges="480292061 480292064#0 1093790529#0 1100837056 1100837045 1100837048 1100837046 480292060 1100837041#0 1100837041#1 480292059#0 981598185#0 981598185#0-AddedOffRampEdge 981598185#2 981598173 981598177"/>
    </vehicle>
    <vehicle id="55" depart="330.00">
        <route edges="95085360 480737865#0 480737841 480737864 480737863#0 480737863#1 480737846#0 981598167 251720556 981598175#1 981598175#2 479140002 971400359#0 1100837039 1100837040 1100837047 241601364#0 241601364#2-AddedOnRampEdge 241601364#2 981624942#0 981624942#2 496946057#0 1368047075 1368047077#4 1368232166 1368047078"/>
    </vehicle>
    <vehicle id="56" depart="336.00">
        <route edges="480292142#0 479140008#0 479140008#2-AddedOnRampEdge 479140008#2 479140006#0 479140006#1 480292140#0 1024885708 480292060 1100837041#0 1100837041#1 480292059#0 981598185#0 981598185#0-AddedOffRampEdge 1100837038 981598175#1 981598175#2 479140002 971400359#0 1100837039 1100837040 1100837047"/>
    </vehicle>
    <vehicle id="57" depart="342.00">
        <route edges="97120536#1 480737861#0 480737861#2 97120535#7 97120535#9 97120535#10 480737862#0 480737862#1 97120989#0 981598175#2 479140002 88653118#0"/>
    </vehicle>
    <vehicle id="58" depart="348.00">
        <route edges="237427514#0-AddedOffRampEdge 237427514#2 981598177 981598172 514502167#0 463462528#0-AddedOnRampEdge 463462528#0 496774658#1"/>
    </vehicle>
    <vehicle id="59" depart="354.00">
        <route edges="497343390#0 1368047077#2 1368047076 -496946057#3 981624942#9 501730314#2 1156760273#0 514502173 981598176 981598167 251720556 981598175#1 981598175#2 479140002 971400359#0 1100837039"/>
    </vehicle>
    <vehicle id="60" depart="360.00">
        <route edges="87360160#6 500788429 97120535#10 480737862#0 480737862#1 480737862#3 463467020#0 480292058 981598172 10481964 981598178 981598184 480737842 480737843 251720557 480737840"/>
    </vehicle>
    <vehicle id="61" depart="366.00">
        <route edges="87360234#3 -87360214 87360160#1 87360225#0 87360225#1 500795347 480737862#1 480737862#3 463467020#0 480292058 981598172 10481964 981598178 981598184 480737842 480737843 251720557 480737840"/>
    </vehicle>
    <vehicle id="62" depart="372.00">
        <route edges="-1192352242#0 87360160#0 87360160#1 87360225#0 87360225#1 500795347 480737862#1 97120989#0 981598175#2 479140002 971400359#0 1100837039 1100837040 1100837047 241601364#0 241601364#2-AddedOnRampEdge 241601364#2 981624942#0 981624942#2 496946057#0 1368047075 1368047077#4 1368047077#5 1368047077#0 501775753#0 88653092#5 88653092#5-AddedOffRampEdge 88653092#6 237427512 237427510"/>
    </vehicle>
    <vehicle id="63" depart="378.00">
        <route edges="-1368047078 1368336167 1368047077#0 1368047077#1 1368047077#2 1368047076 -496946057#3 981624942#9 501730314#2 1156760273#0 514502173 981598176 981598168 97120536#0 97120536#1 480737861#0 87360111#0 480737853#0 480737854#0 500788447 -87360195#1 973229105#0"/>
    </vehicle>
    <vehicle id="64" depart="384.00">
        <route edges="95085361 88652961#0"/>
    </vehicle>
    <vehicle id="65" depart="390.00">
        <route edges="241601364#0 241601364#2-AddedOnRampEdge 241601364#2 981622800#0 981622800#1-AddedOnRampEdge 981622800#1 981622800#1-AddedOffRampEdge 495448302#0 480292136 1024885710 480292131#0 480292131#1 480292121 1192352243#0 -87360234#2"/>
    </vehicle>
    <vehicle id="67" depart="402.00">
        <route edges="100718943 1530629906-AddedOnRampEdge 1530629906 480737865#0 480737841 480737864 480737863#0 480737863#1 480737846#0 981598167 251720556 981598175#1 981598175#2 479140002 88653118#0 480292121 480292124#0 480292124#1 480292124#4"/>
    </vehicle>
    <vehicle id="68" depart="408.00">
        <route edges="-87360225#0 87360225#0 87360225#1 500795347 480737862#1 97120989#0 981598175#2 479140002 971400359#0 1100837039 1100837040 1100837047 241601364#0 241601364#2-AddedOnRampEdge 241601364#2 981624942#0 981624942#2 496946057#0 1368047075 1368047077#4 1368047077#5 1368047077#0 501775753#0 88653092#5 88653092#5-AddedOffRampEdge 237427507#0 -237427513#2 613869024"/>
    </vehicle>
    <vehicle id="69" depart="414.00">
        <route edges="87360195#0 -87360195#1 973229105#0 500795632#4 1096522651#0 -87360265#2 1096522649"/>
    </vehicle>
    <vehicle id="70" depart="420.00">
        <route edges="480292131#0 480292131#1 480292121 1192352243#0 87360160#0 87360160#1 87360225#0 87360225#1 500795347 480737862#1 480737862#3 463467020#0 480292058 981598172 10481964 981598178 981598184 480737842 480737843"/>
    </vehicle>
    <vehicle id="72" depart="432.00">
        <route edges="479140008#2 479140006#0 971400358#0 971400358#0-AddedOffRampEdge 1100837053 479140003#1 1100837057#0"/>
    </vehicle>
    <vehicle id="75" depart="450.00">
        <route edges="981624942#2 496946057#0"/>
    </vehicle>
    <vehicle id="78" depart="468.00">
        <route edges="251720560 1530629906-AddedOnRampEdge 1530629906 480737865#0 480737841 480737864 480737863#0 97120990#0 97120536#1 480737861#0 480737861#2 501774668#0 480737858"/>
    </vehicle>
    <vehicle id="79" depart="474.00">
        <route edges="1156760275#0 463462530#1 463462530#1-AddedOffRampEdge 463462530#12 613486673#0 613486673#0-AddedOffRampEdge 613486673#5 613468077#0 613468077#2-AddedOnRampEdge 613468077#2 613468077#2-AddedOffRampEdge 1136473494#0"/>
    </vehicle>
    <vehicle id="80" depart="480.00">
        <route edges="-87360225#0 87360225#0 87360225#1 500795347 480737862#1 97120989#0 981598175#2 479140002 971400359#0 1100837039 1100837040 1100837047 241601364#0 241601364#2-AddedOnRampEdge 241601364#2 981622800#0 981622800#1-AddedOnRampEdge 981622800#1 981622800#1-AddedOffRampEdge 495448302#0"/>
    </vehicle>
    <vehicle id="81" depart="486.00">
        <route edges="1156760275#0 501730314#2 1156760273#0 514502173 981598176 981598168 97120536#0 97120536#1 480737861#0 480737861#2 97120535#7 97120535#9"/>
    </vehicle>
    <vehicle id="84" depart="504.00">
        <route edges="1136472582 480737863#0 97120990#0 97120536#1 480737861#0 87360111#0 480737853#0 480737854#0 500788447 -87360195#1 973229105#0 500795632#4 1096522651#0 -87360265#2 1096522649"/>
    </vehicle>
    <vehicle id="85" depart="510.00">
        <route edges="981598168 97120536#0 97120536#1 480737861#0 87360111#0 480737853#0 480737854#0 480737854#1 480737854#2"/>
    </vehicle>
    <vehicle id="88" depart="528.00">
        <route edges="1024885708 480292136 1024885710 480292137 1100837044 479140003#0 479140003#1"/>
    </vehicle>
    <vehicle id="90" depart="540.00">
        <route edges="613468077#6 613486673#0 613486673#0-AddedOffRampEdge 613486673#5 501730305#5 501730305#6"/>
    </vehicle>
    <vehicle id="93" depart="558.00">
        <route edges="95085360 480737865#0 480737841 480737864 480737863#0 480737863#1 480737846#0 981598167 251720556 981598175#1 981598175#2 479140002 88653118#0 480292121 1192352243#0"/>
    </vehicle>
    <vehicle id="95" depart="570.00">
        <route edges="479140008#2 479140006#0 479140006#1 457396219#0 241601364#2-AddedOnRampEdge 241601364#2 981624942#0 981624942#2 496946057#0 1368047075 1368047077#4 1368232166 1368336167"/>
    </vehicle>
    <vehicle id="97" depart="582.00">
        <route edges="480292061 480292064#0 480292064#1 480292139#0 480292138 1024885709 241601364#0 241601364#2-AddedOnRampEdge 241601364#2 981624942#0 981624942#2 496946057#0 1368047075 1368047077#4 1368047077#5 1368047077#0 501775753#0 88653092#5"/>
    </vehicle>
    <vehicle id="98" depart="588.00">
        <route edges="480737861#2 97120535#7 -87360160#6 -1192352242#4 -87360214"/>
    </vehicle>
</routes>
