<?xml version="1.0" encoding="UTF-8"?>

<!-- generated on 2026-07-04T02:04:11.095772+04:00 by Eclipse SUMO netconvert 1.27.1
<netconvertConfiguration xmlns:xsi="http://www.w3.org/2001/XMLSchema-instance" xsi:noNamespaceSchemaLocation="http://sumo.dlr.de/xsd/netconvertConfiguration.xsd">

    <input>
        <osm-files value="map.osm"/>
    </input>

    <output>
        <output-file value="citywalk.net.xml"/>
    </output>

    <projection>
        <proj.utm value="true"/>
    </projection>

    <processing>
        <geometry.remove value="true"/>
        <roundabouts.guess value="true"/>
    </processing>

    <tls_building>
        <tls.discard-simple value="true"/>
        <tls.join value="true"/>
        <tls.guess-signals value="true"/>
    </tls_building>

    <ramp_guessing>
        <ramps.guess value="true"/>
    </ramp_guessing>

    <edge_removal>
        <keep-edges.by-vclass value="passenger"/>
    </edge_removal>

    <junctions>
        <junctions.join value="true"/>
    </junctions>

</netconvertConfiguration>
-->

<net version="1.20" junctionCornerDetail="5" limitTurnSpeed="5.50" xmlns:xsi="http://www.w3.org/2001/XMLSchema-instance" xsi:noNamespaceSchemaLocation="http://sumo.dlr.de/xsd/net_file.xsd">

    <location netOffset="-324044.74,-2787802.95" convBoundary="0.00,0.00,1932.23,2029.27" origBoundary="55.253552,25.196189,55.272703,25.214541" projParameter="+proj=utm +zone=40 +ellps=WGS84 +datum=WGS84 +units=m +no_defs"/>

    <type id="highway.motorway_link" priority="9" numLanes="1" speed="22.22" allow="private emergency authority army vip passenger hov taxi bus coach delivery truck trailer motorcycle evehicle custom1 custom2" oneway="1"/>
    <type id="highway.primary" priority="12" numLanes="2" speed="27.78" disallow="tram rail_urban rail rail_electric rail_fast ship container cable_car subway aircraft wheelchair scooter drone" oneway="0"/>
    <type id="highway.primary_link" priority="7" numLanes="1" speed="22.22" disallow="tram rail_urban rail rail_electric rail_fast ship container cable_car subway aircraft wheelchair scooter drone" oneway="0"/>
    <type id="highway.residential" priority="3" numLanes="1" speed="13.89" disallow="tram rail_urban rail rail_electric rail_fast ship container cable_car subway aircraft wheelchair scooter drone" oneway="0"/>
    <type id="highway.secondary" priority="11" numLanes="1" speed="27.78" disallow="tram rail_urban rail rail_electric rail_fast ship container cable_car subway aircraft wheelchair scooter drone" oneway="0"/>
    <type id="highway.secondary_link" priority="6" numLanes="1" speed="22.22" disallow="tram rail_urban rail rail_electric rail_fast ship container cable_car subway aircraft wheelchair scooter drone" oneway="0"/>
    <type id="highway.tertiary" priority="10" numLanes="1" speed="22.22" disallow="tram rail_urban rail rail_electric rail_fast ship container cable_car subway aircraft wheelchair scooter drone" oneway="0"/>
    <type id="highway.tertiary_link" priority="5" numLanes="1" speed="22.22" disallow="tram rail_urban rail rail_electric rail_fast ship container cable_car subway aircraft wheelchair scooter drone" oneway="0"/>
    <type id="highway.trunk_link" priority="8" numLanes="1" speed="22.22" disallow="pedestrian bicycle tram rail_urban rail rail_electric rail_fast ship container cable_car subway aircraft wheelchair scooter drone" oneway="0"/>
    <type id="highway.unclassified" priority="4" numLanes="1" speed="13.89" disallow="tram rail_urban rail rail_electric rail_fast ship container cable_car subway aircraft wheelchair scooter drone" oneway="0"/>

    <edge id=":10018030831_0" function="internal">
        <lane id=":10018030831_0_0" index="0" disallow="pedestrian tram rail_urban rail rail_electric rail_fast ship container cable_car subway aircraft wheelchair scooter drone" speed="22.22" length="11.98" shape="775.53,1546.78 774.12,1543.61 773.25,1541.41 772.54,1539.14 771.62,1535.80"/>
        <lane id=":10018030831_0_1" index="1" disallow="pedestrian tram rail_urban rail rail_electric rail_fast ship container cable_car subway aircraft wheelchair scooter drone" speed="22.22" length="11.98" shape="778.91,1546.49 777.41,1543.16 776.47,1540.85 775.69,1538.47 774.71,1534.96"/>
    </edge>
    <edge id=":10018030831_2" function="internal">
        <lane id=":10018030831_2_0" index="0" disallow="pedestrian tram rail_urban rail rail_electric rail_fast ship container cable_car subway aircraft wheelchair scooter drone" speed="16.67" length="7.17" shape="778.23,1540.93 771.93,1544.42"/>
        <lane id=":10018030831_2_1" index="1" disallow="pedestrian tram rail_urban rail rail_electric rail_fast ship container cable_car subway aircraft wheelchair scooter drone" speed="16.67" length="7.17" shape="776.66,1538.14 770.39,1541.62"/>
        <lane id=":10018030831_2_2" index="2" disallow="pedestrian tram rail_urban rail rail_electric rail_fast ship container cable_car subway aircraft wheelchair scooter drone" speed="16.67" length="7.17" shape="775.09,1535.35 768.85,1538.82"/>
    </edge>
    <edge id=":10018030832_0" function="internal">
        <lane id=":10018030832_0_0" index="0" disallow="pedestrian tram rail_urban rail rail_electric rail_fast ship container cable_car subway aircraft wheelchair scooter drone" speed="22.22" length="6.67" shape="775.29,1553.36 774.85,1551.60 775.34,1550.22 775.89,1548.80 775.61,1546.96"/>
        <lane id=":10018030832_0_1" index="1" disallow="pedestrian tram rail_urban rail rail_electric rail_fast ship container cable_car subway aircraft wheelchair scooter drone" speed="22.22" length="5.46" shape="778.06,1551.75 777.80,1550.35 778.43,1549.26 779.11,1548.15 778.99,1546.67"/>
    </edge>
    <edge id=":10018030832_2" function="internal">
        <lane id=":10018030832_2_0" index="0" disallow="pedestrian tram rail_urban rail rail_electric rail_fast ship container cable_car subway aircraft wheelchair scooter drone" speed="5.69" length="4.46" shape="780.82,1550.13 780.16,1548.82 779.83,1547.68 779.83,1546.72 780.15,1545.94"/>
    </edge>
    <edge id=":10018030836_0" function="internal">
        <lane id=":10018030836_0_0" index="0" disallow="tram rail_urban rail rail_electric rail_fast ship container cable_car subway aircraft wheelchair scooter drone" speed="27.78" length="9.79" shape="802.95,1628.09 801.41,1625.45 800.63,1623.49 800.01,1621.45 798.95,1618.56"/>
        <lane id=":10018030836_0_1" index="1" disallow="tram rail_urban rail rail_electric rail_fast ship container cable_car subway aircraft wheelchair scooter drone" speed="27.78" length="9.79" shape="805.63,1626.35 804.19,1623.85 803.47,1622.00 802.90,1620.07 801.91,1617.34"/>
        <lane id=":10018030836_0_2" index="2" disallow="tram rail_urban rail rail_electric rail_fast ship container cable_car subway aircraft wheelchair scooter drone" speed="27.78" length="9.79" shape="808.31,1624.61 806.97,1622.25 806.31,1620.51 805.79,1618.69 804.87,1616.12"/>
    </edge>
    <edge id=":10018030836_3" function="internal">
        <lane id=":10018030836_3_0" index="0" disallow="pedestrian tram rail_urban rail rail_electric rail_fast ship container cable_car subway aircraft wheelchair scooter drone" speed="14.04" length="8.18" shape="811.00,1622.86 809.71,1620.82 808.99,1619.30 808.63,1617.67 808.39,1615.27"/>
        <lane id=":10018030836_3_1" index="1" disallow="pedestrian tram rail_urban rail rail_electric rail_fast ship container cable_car subway aircraft wheelchair scooter drone" speed="12.63" length="6.58" shape="813.68,1621.12 812.65,1619.48 812.07,1618.26 811.77,1616.94 811.58,1615.01"/>
        <lane id=":10018030836_3_2" index="2" disallow="pedestrian tram rail_urban rail rail_electric rail_fast ship container cable_car subway aircraft wheelchair scooter drone" speed="11.04" length="4.98" shape="816.36,1619.38 815.58,1618.13 815.14,1617.21 814.91,1616.21 814.77,1614.75"/>
    </edge>
    <edge id=":10041503115_0" function="internal">
        <lane id=":10041503115_0_0" index="0" disallow="tram rail_urban rail rail_electric rail_fast ship container cable_car subway aircraft wheelchair scooter drone" speed="9.43" length="3.94" shape="1581.53,1155.31 1580.38,1155.39 1579.60,1155.58 1578.87,1155.95 1577.87,1156.56"/>
    </edge>
    <edge id=":10041503115_1" function="internal">
        <lane id=":10041503115_1_0" index="0" disallow="tram rail_urban rail rail_electric rail_fast ship container cable_car subway aircraft wheelchair scooter drone" speed="4.89" length="7.06" shape="1581.53,1155.31 1579.69,1155.06 1578.91,1154.19 1579.19,1152.69 1580.52,1150.57"/>
    </edge>
    <edge id=":10041503115_2" function="internal">
        <lane id=":10041503115_2_0" index="0" disallow="tram rail_urban rail rail_electric rail_fast ship container cable_car subway aircraft wheelchair scooter drone" speed="11.11" length="5.46" shape="1576.21,1153.82 1577.63,1153.02 1578.62,1152.47 1579.48,1151.78 1580.52,1150.57"/>
    </edge>
    <edge id=":10041503115_3" function="internal">
        <lane id=":10041503115_3_0" index="0" disallow="tram rail_urban rail rail_electric rail_fast ship container cable_car subway aircraft wheelchair scooter drone" speed="3.65" length="4.67" shape="1576.21,1153.82 1577.65,1153.88 1578.41,1154.36 1578.48,1155.25 1577.87,1156.56"/>
    </edge>
    <edge id=":10074952601_0" function="internal">
        <lane id=":10074952601_0_0" index="0" disallow="tram rail_urban rail rail_electric rail_fast ship container cable_car subway aircraft wheelchair scooter drone" speed="8.77" length="2.60" shape="313.58,1680.95 313.18,1680.29 312.94,1679.81 312.80,1679.30 312.71,1678.54"/>
    </edge>
    <edge id=":10074952601_1" function="internal">
        <lane id=":10074952601_1_0" index="0" disallow="tram rail_urban rail rail_electric rail_fast ship container cable_car subway aircraft wheelchair scooter drone" speed="19.44" length="3.01" shape="316.32,1679.30 314.78,1676.72"/>
        <lane id=":10074952601_1_1" index="1" disallow="tram rail_urban rail rail_electric rail_fast ship container cable_car subway aircraft wheelchair scooter drone" speed="19.44" length="3.01" shape="319.07,1677.66 317.52,1675.08"/>
    </edge>
    <edge id=":10074952605_0" function="internal">
        <lane id=":10074952605_0_0" index="0" disallow="tram rail_urban rail rail_electric rail_fast ship container cable_car subway aircraft wheelchair scooter drone" speed="22.22" length="3.12" shape="294.40,1668.44 291.71,1670.02"/>
    </edge>
    <edge id=":10074952605_1" function="internal">
        <lane id=":10074952605_1_0" index="0" disallow="tram rail_urban rail rail_electric rail_fast ship container cable_car subway aircraft wheelchair scooter drone" speed="6.44" length="2.49" shape="295.01,1671.22 294.66,1671.85 294.32,1672.22 293.87,1672.50 293.22,1672.84"/>
    </edge>
    <edge id=":1015893084_0" function="internal">
        <lane id=":1015893084_0_0" index="0" disallow="tram rail_urban rail rail_electric rail_fast ship container cable_car subway aircraft wheelchair scooter drone" speed="13.89" length="14.40" shape="1206.24,1564.44 1198.04,1552.60"/>
    </edge>
    <edge id=":1015893084_1" function="internal">
        <lane id=":1015893084_1_0" index="0" disallow="tram rail_urban rail rail_electric rail_fast ship container cable_car subway aircraft wheelchair scooter drone" speed="8.07" length="4.03" shape="1206.24,1564.44 1204.52,1560.98 1204.51,1560.81"/>
    </edge>
    <edge id=":1015893084_2" function="internal">
        <lane id=":1015893084_2_0" index="0" disallow="tram rail_urban rail rail_electric rail_fast ship container cable_car subway aircraft wheelchair scooter drone" speed="3.65" length="1.44" shape="1206.24,1564.44 1206.21,1563.00"/>
    </edge>
    <edge id=":1015893084_9" function="internal">
        <lane id=":1015893084_9_0" index="0" disallow="tram rail_urban rail rail_electric rail_fast ship container cable_car subway aircraft wheelchair scooter drone" speed="8.07" length="10.19" shape="1204.51,1560.81 1204.31,1557.78 1205.62,1554.82 1208.44,1552.11"/>
    </edge>
    <edge id=":1015893084_10" function="internal">
        <lane id=":1015893084_10_0" index="0" disallow="tram rail_urban rail rail_electric rail_fast ship container cable_car subway aircraft wheelchair scooter drone" speed="3.65" length="3.23" shape="1206.21,1563.00 1206.64,1562.21 1207.53,1562.09 1208.87,1562.62"/>
    </edge>
    <edge id=":1015893084_3" function="internal">
        <lane id=":1015893084_3_0" index="0" disallow="tram rail_urban rail rail_electric rail_fast ship container cable_car subway aircraft wheelchair scooter drone" speed="6.59" length="9.13" shape="1210.32,1554.70 1208.49,1556.45 1207.65,1558.35 1207.77,1560.41 1208.87,1562.62"/>
    </edge>
    <edge id=":1015893084_4" function="internal">
        <lane id=":1015893084_4_0" index="0" disallow="tram rail_urban rail rail_electric rail_fast ship container cable_car subway aircraft wheelchair scooter drone" speed="7.97" length="14.27" shape="1210.32,1554.70 1206.84,1556.53 1203.64,1556.78 1200.71,1555.47 1198.04,1552.60"/>
    </edge>
    <edge id=":1015893084_5" function="internal">
        <lane id=":1015893084_5_0" index="0" disallow="tram rail_urban rail rail_electric rail_fast ship container cable_car subway aircraft wheelchair scooter drone" speed="3.65" length="4.67" shape="1210.32,1554.70 1208.87,1554.76 1208.08,1554.34 1207.94,1553.46 1208.44,1552.11"/>
    </edge>
    <edge id=":1015893084_6" function="internal">
        <lane id=":1015893084_6_0" index="0" disallow="tram rail_urban rail rail_electric rail_fast ship container cable_car subway aircraft wheelchair scooter drone" speed="6.46" length="9.03" shape="1200.67,1550.78 1202.36,1552.60 1204.22,1553.43 1206.24,1553.26 1208.44,1552.11"/>
    </edge>
    <edge id=":1015893084_7" function="internal">
        <lane id=":1015893084_7_0" index="0" disallow="tram rail_urban rail rail_electric rail_fast ship container cable_car subway aircraft wheelchair scooter drone" speed="13.89" length="14.40" shape="1200.67,1550.78 1208.87,1562.62"/>
    </edge>
    <edge id=":1015893084_8" function="internal">
        <lane id=":1015893084_8_0" index="0" disallow="tram rail_urban rail rail_electric rail_fast ship container cable_car subway aircraft wheelchair scooter drone" speed="3.65" length="1.44" shape="1200.67,1550.78 1200.70,1552.22"/>
    </edge>
    <edge id=":1015893084_11" function="internal">
        <lane id=":1015893084_11_0" index="0" disallow="tram rail_urban rail rail_electric rail_fast ship container cable_car subway aircraft wheelchair scooter drone" speed="3.65" length="3.23" shape="1200.70,1552.22 1200.27,1553.00 1199.38,1553.13 1198.04,1552.60"/>
    </edge>
    <edge id=":1015893138_0" function="internal">
        <lane id=":1015893138_0_0" index="0" disallow="tram rail_urban rail rail_electric rail_fast ship container cable_car subway aircraft wheelchair scooter drone" speed="12.50" length="27.46" shape="1470.33,1600.89 1462.29,1605.71 1455.87,1609.82 1450.96,1613.26 1447.47,1616.05"/>
    </edge>
    <edge id=":1015893138_1" function="internal">
        <lane id=":1015893138_1_0" index="0" disallow="tram rail_urban rail rail_electric rail_fast ship container cable_car subway aircraft wheelchair scooter drone" speed="11.11" length="28.24" shape="1468.72,1598.12 1445.06,1613.56"/>
        <lane id=":1015893138_1_1" index="1" disallow="tram rail_urban rail rail_electric rail_fast ship container cable_car subway aircraft wheelchair scooter drone" speed="11.11" length="28.24" shape="1467.11,1595.36 1443.46,1610.78"/>
    </edge>
    <edge id=":1015893383_0" function="internal">
        <lane id=":1015893383_0_0" index="0" disallow="tram rail_urban rail rail_electric rail_fast ship container cable_car subway aircraft wheelchair scooter drone" speed="15.28" length="31.06" shape="1438.53,1634.76 1439.86,1640.05 1443.22,1647.41 1447.69,1655.34 1452.35,1662.34"/>
    </edge>
    <edge id=":1015893383_1" function="internal">
        <lane id=":1015893383_1_0" index="0" disallow="tram rail_urban rail rail_electric rail_fast ship container cable_car subway aircraft wheelchair scooter drone" speed="16.67" length="31.36" shape="1434.02,1636.92 1452.35,1662.34"/>
        <lane id=":1015893383_1_1" index="1" disallow="tram rail_urban rail rail_electric rail_fast ship container cable_car subway aircraft wheelchair scooter drone" speed="16.67" length="31.36" shape="1431.42,1638.79 1449.78,1664.24"/>
    </edge>
    <edge id=":1015893419_0" function="internal">
        <lane id=":1015893419_0_0" index="0" disallow="tram rail_urban rail rail_electric rail_fast ship container cable_car subway aircraft wheelchair scooter drone" speed="11.11" length="14.36" shape="1260.40,1627.02 1248.83,1635.51"/>
    </edge>
    <edge id=":1015893419_1" function="internal">
        <lane id=":1015893419_1_0" index="0" disallow="tram rail_urban rail rail_electric rail_fast ship container cable_car subway aircraft wheelchair scooter drone" speed="7.96" length="14.28" shape="1260.40,1627.02 1256.93,1628.85 1253.73,1629.11 1250.79,1627.81 1248.12,1624.93"/>
    </edge>
    <edge id=":1015893419_2" function="internal">
        <lane id=":1015893419_2_0" index="0" disallow="tram rail_urban rail rail_electric rail_fast ship container cable_car subway aircraft wheelchair scooter drone" speed="3.65" length="4.67" shape="1260.40,1627.02 1258.96,1627.07 1258.17,1626.66 1258.02,1625.78 1258.52,1624.43"/>
    </edge>
    <edge id=":1015893419_3" function="internal">
        <lane id=":1015893419_3_0" index="0" disallow="tram rail_urban rail rail_electric rail_fast ship container cable_car subway aircraft wheelchair scooter drone" speed="6.46" length="9.03" shape="1250.75,1623.11 1252.44,1624.93 1254.30,1625.76 1256.33,1625.59 1258.52,1624.43"/>
    </edge>
    <edge id=":1015893419_4" function="internal">
        <lane id=":1015893419_4_0" index="0" disallow="tram rail_urban rail rail_electric rail_fast ship container cable_car subway aircraft wheelchair scooter drone" speed="8.10" length="14.21" shape="1250.75,1623.11 1252.52,1626.60 1252.78,1629.84 1251.55,1632.81 1248.83,1635.51"/>
    </edge>
    <edge id=":1015893419_5" function="internal">
        <lane id=":1015893419_5_0" index="0" disallow="tram rail_urban rail rail_electric rail_fast ship container cable_car subway aircraft wheelchair scooter drone" speed="3.65" length="4.67" shape="1250.75,1623.11 1250.78,1624.55 1250.35,1625.33 1249.46,1625.46 1248.12,1624.93"/>
    </edge>
    <edge id=":1015893419_6" function="internal">
        <lane id=":1015893419_6_0" index="0" disallow="tram rail_urban rail rail_electric rail_fast ship container cable_car subway aircraft wheelchair scooter drone" speed="6.63" length="9.17" shape="1246.92,1632.94 1248.67,1631.20 1249.45,1629.29 1249.27,1627.20 1248.12,1624.93"/>
    </edge>
    <edge id=":1015893419_7" function="internal">
        <lane id=":1015893419_7_0" index="0" disallow="tram rail_urban rail rail_electric rail_fast ship container cable_car subway aircraft wheelchair scooter drone" speed="11.11" length="14.39" shape="1246.92,1632.94 1258.52,1624.43"/>
    </edge>
    <edge id=":1015893419_8" function="internal">
        <lane id=":1015893419_8_0" index="0" disallow="tram rail_urban rail rail_electric rail_fast ship container cable_car subway aircraft wheelchair scooter drone" speed="3.65" length="4.67" shape="1246.92,1632.94 1248.36,1632.87 1249.16,1633.27 1249.32,1634.15 1248.83,1635.51"/>
    </edge>
    <edge id=":1015893446_0" function="internal">
        <lane id=":1015893446_0_0" index="0" disallow="tram rail_urban rail rail_electric rail_fast ship container cable_car subway aircraft wheelchair scooter drone" speed="12.50" length="7.79" shape="1444.39,1592.84 1446.63,1592.26 1448.22,1591.98 1449.73,1591.55 1451.76,1590.50"/>
    </edge>
    <edge id=":1015893446_1" function="internal">
        <lane id=":1015893446_1_0" index="0" disallow="tram rail_urban rail rail_electric rail_fast ship container cable_car subway aircraft wheelchair scooter drone" speed="11.11" length="8.68" shape="1445.34,1596.21 1447.64,1595.13 1449.38,1594.73 1451.13,1594.33 1453.43,1593.24"/>
        <lane id=":1015893446_1_1" index="1" disallow="tram rail_urban rail rail_electric rail_fast ship container cable_car subway aircraft wheelchair scooter drone" speed="11.11" length="8.68" shape="1446.98,1598.96 1449.29,1597.87 1451.04,1597.47 1452.78,1597.07 1455.09,1595.97"/>
    </edge>
    <edge id=":1015893487_0" function="internal">
        <lane id=":1015893487_0_0" index="0" disallow="tram rail_urban rail rail_electric rail_fast ship container cable_car subway aircraft wheelchair scooter drone" speed="3.65" length="4.67" shape="1667.96,1560.30 1669.40,1560.27 1670.18,1560.70 1670.31,1561.58 1669.78,1562.92"/>
    </edge>
    <edge id=":1015893560_0" function="internal">
        <lane id=":1015893560_0_0" index="0" disallow="tram rail_urban rail rail_electric rail_fast ship container cable_car subway aircraft wheelchair scooter drone" speed="6.74" length="9.39" shape="854.50,1628.44 852.55,1630.23 851.57,1632.17 851.57,1634.27 852.55,1636.53"/>
    </edge>
    <edge id=":1015893560_1" function="internal">
        <lane id=":1015893560_1_0" index="0" disallow="tram rail_urban rail rail_electric rail_fast ship container cable_car subway aircraft wheelchair scooter drone" speed="3.65" length="4.67" shape="854.50,1628.44 853.06,1628.47 852.27,1628.05 852.14,1627.16 852.67,1625.82"/>
    </edge>
    <edge id=":1015893560_2" function="internal">
        <lane id=":1015893560_2_0" index="0" disallow="tram rail_urban rail rail_electric rail_fast ship container cable_car subway aircraft wheelchair scooter drone" speed="6.33" length="9.04" shape="845.08,1624.14 846.64,1626.11 848.42,1627.04 850.43,1626.95 852.67,1625.82"/>
    </edge>
    <edge id=":1015893560_3" function="internal">
        <lane id=":1015893560_3_0" index="0" disallow="tram rail_urban rail rail_electric rail_fast ship container cable_car subway aircraft wheelchair scooter drone" speed="27.78" length="14.58" shape="845.08,1624.14 852.55,1636.53"/>
        <lane id=":1015893560_3_1" index="1" disallow="tram rail_urban rail rail_electric rail_fast ship container cable_car subway aircraft wheelchair scooter drone" speed="27.78" length="14.58" shape="842.31,1625.75 849.84,1638.24"/>
        <lane id=":1015893560_3_2" index="2" disallow="tram rail_urban rail rail_electric rail_fast ship container cable_car subway aircraft wheelchair scooter drone" speed="27.78" length="14.58" shape="839.55,1627.36 847.13,1639.94"/>
    </edge>
    <edge id=":1015893590_0" function="internal">
        <lane id=":1015893590_0_0" index="0" disallow="tram rail_urban rail rail_electric rail_fast ship container cable_car subway aircraft wheelchair scooter drone" speed="11.11" length="0.69" shape="1498.27,1235.31 1498.19,1235.13 1498.18,1234.99 1498.17,1234.84 1498.12,1234.65"/>
    </edge>
    <edge id=":1015893590_1" function="internal">
        <lane id=":1015893590_1_0" index="0" disallow="tram rail_urban rail rail_electric rail_fast ship container cable_car subway aircraft wheelchair scooter drone" speed="11.11" length="0.22" shape="1500.89,1233.46 1501.00,1233.65"/>
    </edge>
    <edge id=":1015893605_0" function="internal">
        <lane id=":1015893605_0_0" index="0" disallow="tram rail_urban rail rail_electric rail_fast ship container cable_car subway aircraft wheelchair scooter drone" speed="3.65" length="4.67" shape="1282.72,1498.45 1284.16,1498.40 1284.96,1498.81 1285.10,1499.70 1284.60,1501.05"/>
    </edge>
    <edge id=":1015893841_0" function="internal">
        <lane id=":1015893841_0_0" index="0" disallow="tram rail_urban rail rail_electric rail_fast ship container cable_car subway aircraft wheelchair scooter drone" speed="6.46" length="9.03" shape="1194.95,1681.74 1193.26,1679.92 1191.40,1679.10 1189.37,1679.27 1187.18,1680.43"/>
    </edge>
    <edge id=":1015893841_1" function="internal">
        <lane id=":1015893841_1_0" index="0" disallow="tram rail_urban rail rail_electric rail_fast ship container cable_car subway aircraft wheelchair scooter drone" speed="8.07" length="14.22" shape="1194.95,1681.74 1193.18,1678.25 1192.92,1675.02 1194.18,1672.06 1196.94,1669.37"/>
    </edge>
    <edge id=":1015893841_2" function="internal">
        <lane id=":1015893841_2_0" index="0" disallow="tram rail_urban rail rail_electric rail_fast ship container cable_car subway aircraft wheelchair scooter drone" speed="3.65" length="4.67" shape="1194.95,1681.74 1194.92,1680.30 1195.35,1679.51 1196.23,1679.38 1197.58,1679.91"/>
    </edge>
    <edge id=":1015893841_3" function="internal">
        <lane id=":1015893841_3_0" index="0" disallow="tram rail_urban rail rail_electric rail_fast ship container cable_car subway aircraft wheelchair scooter drone" speed="6.59" length="9.14" shape="1198.83,1671.96 1197.06,1673.68 1196.26,1675.58 1196.43,1677.66 1197.58,1679.91"/>
    </edge>
    <edge id=":1015893841_4" function="internal">
        <lane id=":1015893841_4_0" index="0" disallow="tram rail_urban rail rail_electric rail_fast ship container cable_car subway aircraft wheelchair scooter drone" speed="11.11" length="14.40" shape="1198.83,1671.96 1187.18,1680.43"/>
    </edge>
    <edge id=":1015893841_5" function="internal">
        <lane id=":1015893841_5_0" index="0" disallow="tram rail_urban rail rail_electric rail_fast ship container cable_car subway aircraft wheelchair scooter drone" speed="3.65" length="4.67" shape="1198.83,1671.96 1197.38,1672.02 1196.59,1671.61 1196.44,1670.72 1196.94,1669.37"/>
    </edge>
    <edge id=":1015893841_6" function="internal">
        <lane id=":1015893841_6_0" index="0" disallow="tram rail_urban rail rail_electric rail_fast ship container cable_car subway aircraft wheelchair scooter drone" speed="11.11" length="14.41" shape="1185.29,1677.85 1196.94,1669.37"/>
    </edge>
    <edge id=":1015893841_7" function="internal">
        <lane id=":1015893841_7_0" index="0" disallow="tram rail_urban rail rail_electric rail_fast ship container cable_car subway aircraft wheelchair scooter drone" speed="7.96" length="14.27" shape="1185.29,1677.85 1188.76,1676.01 1191.96,1675.74 1194.90,1677.04 1197.58,1679.91"/>
    </edge>
    <edge id=":1015893841_8" function="internal">
        <lane id=":1015893841_8_0" index="0" disallow="tram rail_urban rail rail_electric rail_fast ship container cable_car subway aircraft wheelchair scooter drone" speed="3.65" length="4.67" shape="1185.29,1677.85 1186.73,1677.79 1187.53,1678.20 1187.68,1679.08 1187.18,1680.43"/>
    </edge>
    <edge id=":1015893919_0" function="internal">
        <lane id=":1015893919_0_0" index="0" disallow="tram rail_urban rail rail_electric rail_fast ship container cable_car subway aircraft wheelchair scooter drone" speed="6.46" length="9.03" shape="1311.26,1596.87 1309.57,1595.06 1307.71,1594.24 1305.68,1594.41 1303.49,1595.58"/>
    </edge>
    <edge id=":1015893919_1" function="internal">
        <lane id=":1015893919_1_0" index="0" disallow="tram rail_urban rail rail_electric rail_fast ship container cable_car subway aircraft wheelchair scooter drone" speed="8.13" length="14.20" shape="1311.26,1596.87 1309.48,1593.38 1309.19,1590.15 1310.38,1587.16 1313.06,1584.43"/>
    </edge>
    <edge id=":1015893919_2" function="internal">
        <lane id=":1015893919_2_0" index="0" disallow="tram rail_urban rail rail_electric rail_fast ship container cable_car subway aircraft wheelchair scooter drone" speed="3.65" length="4.67" shape="1311.26,1596.87 1311.23,1595.43 1311.66,1594.64 1312.54,1594.51 1313.89,1595.04"/>
    </edge>
    <edge id=":1015893919_3" function="internal">
        <lane id=":1015893919_3_0" index="0" disallow="tram rail_urban rail rail_electric rail_fast ship container cable_car subway aircraft wheelchair scooter drone" speed="6.66" length="9.20" shape="1315.00,1586.98 1313.28,1588.74 1312.52,1590.67 1312.72,1592.77 1313.89,1595.04"/>
    </edge>
    <edge id=":1015893919_4" function="internal">
        <lane id=":1015893919_4_0" index="0" disallow="tram rail_urban rail rail_electric rail_fast ship container cable_car subway aircraft wheelchair scooter drone" speed="11.11" length="14.37" shape="1315.00,1586.98 1303.49,1595.58"/>
    </edge>
    <edge id=":1015893919_5" function="internal">
        <lane id=":1015893919_5_0" index="0" disallow="tram rail_urban rail rail_electric rail_fast ship container cable_car subway aircraft wheelchair scooter drone" speed="3.65" length="4.67" shape="1315.00,1586.98 1313.56,1587.07 1312.76,1586.67 1312.59,1585.80 1313.06,1584.43"/>
    </edge>
    <edge id=":1015893919_6" function="internal">
        <lane id=":1015893919_6_0" index="0" disallow="tram rail_urban rail rail_electric rail_fast ship container cable_car subway aircraft wheelchair scooter drone" speed="11.11" length="14.31" shape="1301.60,1593.00 1313.06,1584.43"/>
    </edge>
    <edge id=":1015893919_7" function="internal">
        <lane id=":1015893919_7_0" index="0" disallow="tram rail_urban rail rail_electric rail_fast ship container cable_car subway aircraft wheelchair scooter drone" speed="7.96" length="14.28" shape="1301.60,1593.00 1305.06,1591.15 1308.26,1590.88 1311.20,1592.17 1313.89,1595.04"/>
    </edge>
    <edge id=":1015893919_8" function="internal">
        <lane id=":1015893919_8_0" index="0" disallow="tram rail_urban rail rail_electric rail_fast ship container cable_car subway aircraft wheelchair scooter drone" speed="3.65" length="4.67" shape="1301.60,1593.00 1303.04,1592.93 1303.83,1593.34 1303.98,1594.23 1303.49,1595.58"/>
    </edge>
    <edge id=":1015893944_0" function="internal">
        <lane id=":1015893944_0_0" index="0" disallow="tram rail_urban rail rail_electric rail_fast ship container cable_car subway aircraft wheelchair scooter drone" speed="27.78" length="9.08" shape="844.60,1677.74 842.09,1676.02 839.18,1676.54 836.26,1677.08 833.68,1675.41"/>